8
symmetry c1
H        0.702728547      0.000000000     -2.032778050
O        0.702728547     -0.507766095     -1.203774462
O        0.702728547      1.603052223     -0.418231633
C        0.702728547      0.411818743     -0.204740507
C        0.702728547     -0.247834459      1.150594462
H        1.583876547     -0.887746826      1.253946006
H        0.702728547      0.516223241      1.926549857
H       -0.178419453     -0.887746826      1.253946006
